28
Guanidinium_C6_O_comp 
  C      1.663395   -1.716445   -5.205881
  C      0.325273   -1.508860   -4.487141
  N      2.522009   -0.555407   -5.065410
  C     -0.649210   -0.521130   -5.149565
  C     -0.221568    0.954844   -5.193555
  H      0.721863    1.045290   -5.753174
  C     -0.042129    1.630412   -3.817692
  H     -0.971980    1.505646   -5.786025
  H     -0.004614    0.868781   -3.017117
  H     -0.914256    2.271125   -3.591165
  C      1.265208    2.446066   -3.723215
  H      1.190752    3.266860   -4.489218
  H      1.243464    2.982909   -2.739814
  O      2.381634    1.668090   -3.876836
  H      1.473554   -1.920910   -6.277813
  H      2.158971   -2.614607   -4.790563
  C      3.408408   -0.132767   -5.956140
  N      3.830173    1.129570   -5.859551
  N      3.876413   -0.951517   -6.936703
  H      3.503670   -1.888575   -7.023566
  H      4.296108   -0.546947   -7.761154
  H      2.310963    0.179344   -4.401227
  H      3.391858    1.637259   -5.101692
  H      4.678183    1.414943   -6.329569
  H     -0.854581   -0.873600   -6.178264
  H     -1.610836   -0.594595   -4.610716
  H      0.534110   -1.204054   -3.448005
  H     -0.163456   -2.495583   -4.421229
