26
Guanidinium_O_C6_O_comp1 
  C      1.657296   -2.363372   -5.010301
  C      0.226291   -1.811240   -4.980556
  C      2.158688   -2.811469   -3.619127
  C     -0.830366   -2.890347   -4.656116
  C     -1.893548   -2.479513   -3.632147
  H     -2.539721   -1.673757   -4.033336
  C     -1.283883   -2.032268   -2.279763
  H     -2.546913   -3.353152   -3.459396
  O     -0.280117   -2.835212   -1.829773
  H      2.349832   -1.617110   -5.442635
  H      1.699257   -3.240607   -5.678240
  C      2.462059   -1.649107   -2.713622
  N      3.559681   -0.916545   -2.970472
  N      1.652324   -1.397040   -1.728540
  H      0.828917   -1.987595   -1.643530
  H      1.835236   -0.611005   -1.119344
  H      4.139994   -1.140436   -3.774875
  H      3.787230   -0.084858   -2.442308
  H     -1.312449   -3.222539   -5.591807
  H     -0.326302   -3.777057   -4.241722
  H      0.008435   -1.341965   -5.955191
  H      0.171244   -0.994082   -4.241736
  H      3.078883   -3.412293   -3.716769
  H      1.370527   -3.391191   -3.108910
  H     -2.144179   -1.935042   -1.563868
  H     -0.951155   -0.956319   -2.420895
