26
Coordinates_m2 from ORCA-job B
  C   -4.38262307886767     -1.67088922228706      1.21620123990041
  C   -5.76353884223015     -1.91517009418630      0.70501225109336
  C   -3.28172816708473     -2.19127232077839      0.29436121170575
  C   -5.57236426601091     -5.80779778121059     -0.81644493289857
  S   -6.90317860430990     -4.61903253888189     -0.52845825115517
  H   -5.84081245237619     -2.11520496885759     -0.30064636473643
  H   -6.40882305467270     -1.14865557918753      0.93612380710616
  H   -6.17478054583437     -2.79060640086591      1.05143281280082
  O   -8.11485258526140     -5.25093175024807     -0.95700738251447
  F   -6.53271453225512     -3.42683780758907     -1.31484833350533
  H   -4.32861817962042     -2.13922323707488      2.19810279265955
  H   -4.26158307942325     -0.59739871300170      1.35724823988995
  O   -6.86563206192867     -4.29495735314382      0.91411800996612
  C   -3.47464105423692     -3.60589776252897     -0.25960779625154
  H   -2.35454782301695     -2.12760215089291      0.87143339272696
  H   -3.16661075688755     -1.49969259247718     -0.54503743179829
  C   -3.82707794579219     -4.66109690477400      0.78617419203130
  H   -2.56055885694710     -3.88939125067962     -0.78805017589939
  H   -4.25593238268619     -3.57004024272238     -1.01930020512300
  C   -4.45780043491397     -5.94187487851777      0.22919486881541
  H   -5.17734748006984     -5.54257484549727     -1.79771391924681
  H   -6.07420247450873     -6.76889357327374     -0.92127238617293
  H   -4.53050586409487     -4.25364028666500      1.51197854131922
  H   -2.93339997158313     -4.93230154381368      1.35682513909863
  H   -3.68106403831382     -6.56223642818638     -0.22988450045485
  H   -4.84394246707289     -6.51272777265803      1.07580518064312
