28
Guanidinium_O_C6_COO_comp1 
  C      2.514063   -2.737859   -2.524974
  C     -0.811752    0.278517   -2.707034
  C     -0.393309    0.622595   -4.152121
  H      0.303745    1.474163   -4.178279
  H     -1.286065    0.939503   -4.718513
  C      0.278069   -0.530924   -4.919118
  C      2.964362   -2.376581   -3.915437
  N      2.190217   -2.591620   -4.943233
  N      4.175145   -1.820698   -4.060488
  H      4.719258   -1.575175   -3.237758
  H      4.439908   -1.393687   -4.938224
  H      1.184245   -2.594074   -4.801659
  H      2.346905   -2.022327   -5.764517
  O     -0.181539   -1.697785   -4.709697
  O      1.274771   -0.250748   -5.627511
  C      2.507904   -1.526692   -1.565147
  C      1.613783   -0.361499   -2.013201
  H      2.185476   -1.892663   -0.575750
  H      3.544528   -1.170773   -1.420998
  C      0.116988   -0.693507   -1.958686
  H      1.901296   -0.064854   -3.035817
  H      1.829372    0.513724   -1.376191
  H     -0.048499   -1.684168   -2.402669
  H     -0.197171   -0.757023   -0.901070
  H     -0.906745    1.222202   -2.139801
  H     -1.814617   -0.177839   -2.714690
  H      1.512920   -3.180695   -2.600527
  H      3.187992   -3.519113   -2.132940
