16
NH3_C3_COO_comp 
  C      0.658211    1.008148   -3.642263
  N      0.271173    0.664070   -2.241729
  C      0.132820    2.389618   -4.033884
  C     -1.372814    2.477064   -4.320820
  C     -2.357098    2.319608   -3.119846
  H     -1.641749    1.704763   -5.066308
  H     -1.599188    3.443873   -4.793997
  H      0.415701   -0.324804   -2.017393
  H     -0.712667    0.950598   -2.155933
  H      0.794948    1.226596   -1.558648
  O     -3.427829    2.902309   -3.199544
  O     -1.967593    1.551974   -2.161183
  H      0.217245    0.234484   -4.289135
  H      1.753603    0.946084   -3.733257
  H      0.421795    3.121052   -3.256100
  H      0.691200    2.683561   -4.938981
