30
Coordinates_m1 from ORCA-job B
  C   2.23447346392744     -2.98975405655126     -2.39762173557614
  C   2.75679906857839     -2.94555345526462     -3.76502861978396
  C   -1.10432539740194      0.25137385873863     -2.86005580694834
  C   -0.71189300081621      0.84251740094268     -4.21834447152728
  H   0.15462584459135      1.49979977566531     -4.13090851747327
  H   -1.53813398518021      1.45922203397934     -4.58267057227351
  C   -0.39762444555094     -0.20587455340424     -5.28801844989852
  C   1.98720814251926     -2.59045149003816     -4.81897525645722
  N   0.74322140836827     -3.01749264893517     -4.91352402501861
  N   2.49963593973733     -1.84859813074130     -5.80324145622272
  H   3.30978002637149     -1.29281796797736     -5.55894681255928
  H   1.80102531571411     -1.30429832060773     -6.28912873030448
  H   3.71611588839557     -2.62879675593266     -3.82953347330944
  H   0.39582766226817     -3.62774673712507     -4.18502351537346
  H   0.03920119612823     -2.45438287352486     -5.37136715144776
  F   0.61716528244096     -0.00534773239250     -5.99827269662065
  O   -1.13317298781400     -1.22138009902623     -5.34146542366837
  C   2.19119944486112     -1.61950326203814     -1.71549223911685
  H   2.87278319692318     -3.66636842081763     -1.82801375597862
  H   1.24618849075060     -3.44744400608884     -2.40784212690001
  C   1.29872921736152     -0.55431384160624     -2.35977284747704
  H   1.87291728701322     -1.78795523023971     -0.68130957375286
  H   3.21680921887445     -1.23843188719155     -1.65442782606624
  C   -0.19625510105146     -0.86336549759839     -2.32576345666920
  H   1.61253069617991     -0.37134550459054     -3.39306480416942
  H   1.48094408932106      0.38863808611276     -1.83444388404082
  H   -0.40410462220266     -1.76182535516162     -2.90944761628215
  H   -0.49043903457121     -1.08788042364140     -1.29413090458535
  H   -1.14384182675482      1.06671119249081     -2.12968031959315
  H   -2.11440147898228     -0.15683409743421     -2.93032293090501
