35
Guanidinium_O_C9_O_comp1 
  C      4.386723   -0.142492   -1.411463
  C      4.529480   -0.939829   -2.727876
  H      4.773175   -1.990890   -2.492265
  C      3.310302   -0.920048   -3.661438
  H      5.418415   -0.545155   -3.248624
  H      2.501270   -1.497544   -3.191320
  H      3.569863   -1.470557   -4.582559
  C      2.770658    0.463634   -4.033837
  H      2.589698    1.049118   -3.117992
  C      1.465793    0.413625   -4.850118
  H      3.536736    1.021085   -4.602774
  C      0.321308   -0.381896   -4.196766
  H      1.679223   -0.016081   -5.845643
  H      1.132561    1.450472   -5.033380
  C     -0.043925    0.080914   -2.784334
  H      0.594050   -1.451588   -4.160324
  H     -0.565464   -0.333285   -4.853252
  H      0.871218    0.199920   -2.192073
  C     -0.939397   -0.866702   -1.985401
  H     -0.502915    1.086974   -2.827209
  H     -0.556607   -1.900335   -2.098303
  H     -1.970249   -0.870020   -2.388344
  C     -0.951808   -0.525347   -0.475632
  H     -1.672377   -1.230527    0.009125
  H     -1.436332    0.481596   -0.376908
  O      0.288382   -0.560618    0.110885
  C      3.062600   -0.315531   -0.714367
  N      2.383942    0.731710   -0.280109
  N      2.513793   -1.507118   -0.548297
  H      2.979503   -2.329874   -0.921987
  H      1.548859   -1.474243   -0.245433
  H      2.737802    1.665515   -0.470611
  H      1.436524    0.513741    0.000547
  H      4.527900    0.932336   -1.598636
  H      5.189693   -0.442641   -0.716523
