31
Guanidinium_C6_SO3_comp 
  C      1.979752   -1.702174   -1.943912
  N      2.783484   -1.986039   -3.124637
  C      0.500345    1.688341   -4.510730
  C      1.560277    1.643984   -5.613894
  H      2.549342    1.997997   -5.287483
  H      1.248344    2.260683   -6.469107
  S      1.853065   -0.011258   -6.334804
  C      4.085382   -2.253619   -3.135737
  N      4.770803   -2.027510   -4.258753
  N      4.710153   -2.741768   -2.039494
  H      4.170829   -3.062313   -1.244992
  H      5.698319   -2.951286   -2.056220
  H      2.486306   -1.558436   -3.992712
  H      4.285351   -1.523725   -4.989684
  H      5.716317   -2.366081   -4.377000
  O      2.484847    0.217879   -7.642538
  O      0.554251   -0.717919   -6.304238
  C      2.127356   -0.249421   -1.462574
  H      2.217963   -2.409718   -1.132098
  H      0.936656   -1.909414   -2.222020
  C      0.658633    0.689930   -3.356750
  H     -0.478838    1.503928   -4.979667
  H      0.472621    2.719506   -4.112109
  C      1.973944    0.793010   -2.580950
  H      3.116843   -0.129377   -0.986236
  H      1.376282   -0.081065   -0.670258
  O      2.842002   -0.651156   -5.345661
  H      2.810815    0.681644   -3.287928
  H      2.067184    1.799397   -2.135874
  H      0.538702   -0.315552   -3.788747
  H     -0.187650    0.826891   -2.659030
