26
NH3_C6_SO3_comp 
  C     -4.388860   -1.669828    1.217339
  N     -5.780665   -1.914815    0.722192
  C     -3.286277   -2.184341    0.283506
  C     -5.565940   -5.846284   -0.813908
  S     -6.880856   -4.596514   -0.533979
  H     -5.879726   -2.157149   -0.272190
  H     -6.421126   -1.139709    0.937527
  H     -6.199931   -2.778284    1.088461
  O     -8.127827   -5.192976   -1.014110
  O     -6.436587   -3.372224   -1.316298
  H     -4.318926   -2.142798    2.206857
  H     -4.266137   -0.587230    1.365956
  O     -6.857538   -4.273654    0.950584
  C     -3.468866   -3.606863   -0.269148
  H     -2.347679   -2.105495    0.859999
  H     -3.182033   -1.487618   -0.565683
  C     -3.831929   -4.662761    0.780586
  H     -2.545151   -3.894134   -0.799979
  H     -4.259847   -3.568941   -1.030621
  C     -4.438268   -5.961451    0.223763
  H     -5.194663   -5.606890   -1.820957
  H     -6.117187   -6.794361   -0.877848
  H     -4.571765   -4.254442    1.481739
  H     -2.944344   -4.918102    1.385749
  H     -3.646362   -6.573937   -0.244071
  H     -4.810391   -6.545147    1.080274
