20
Coordinates from ORCA-job B
  C   -0.46129278604562      2.23468578704369     -4.98961904005500
  C   0.84888265971981      2.66796697355912     -4.30235138435066
  C   2.09343392030341      1.86103708067235     -4.65684462674424
  H   2.44481370900931      2.04156655490911     -5.67499044304010
  H   2.90174787099152      2.13786372324099     -3.98033777958977
  S   1.87964372522168      0.07859386315408     -4.46296509697773
  C   -0.42384055274795      2.39877189610259     -6.47431661041161
  N   -0.95946676147821      3.49264746388406     -7.00740064351677
  N   0.14558481008630      1.48689082624733     -7.20398720863589
  H   0.56537089098927      0.69680707894345     -6.72385841555464
  H   0.22068167599344      1.58176813779902     -8.20751968602530
  H   -1.40624262810436      4.18150658549070     -6.40326083435084
  H   -0.93421495760361      3.68160125641265     -7.99946843148752
  O   3.20757441982960     -0.46611124555230     -4.42025907767002
  O   1.07506383934461     -0.05616016865527     -3.26875785677706
  O   1.13166146504037     -0.31995960280141     -5.67903101622402
  H   0.66843227713818      2.55942701671355     -3.23285008216146
  H   1.03407416083197      3.72942640343435     -4.49708109698683
  H   -1.28888406744720      2.82673696913203     -4.59499714538315
  H   -0.65169567107254      1.18634340026987     -4.75655152405734
