22
Guanidinium_C3_SO3_comp 
  C      3.356167    2.081695   -3.354349
  N      4.541577    1.217470   -3.462823
  C      2.517035    1.792062   -2.105938
  C      1.887298    0.403643   -2.069397
  H      2.617640   -0.408093   -2.219206
  H      1.387547    0.224506   -1.106667
  S      0.561559    0.176828   -3.319307
  C      4.681222    0.125419   -4.227317
  N      5.897726   -0.477157   -4.245777
  N      3.694291   -0.357663   -4.958574
  H      2.727523   -0.081208   -4.844464
  H      3.890220   -1.116350   -5.594900
  H      5.273492    1.375857   -2.779384
  H      6.709895   -0.037389   -3.831227
  H      6.013469   -1.391777   -4.658847
  O      0.129626   -1.221582   -3.153918
  O     -0.410646    1.246221   -3.029187
  O      1.278604    0.413389   -4.648115
  H      1.702480    2.533890   -2.070352
  H      3.136678    1.947277   -1.202812
  H      2.737721    1.938902   -4.249259
  H      3.717946    3.121679   -3.339389
