14
Coordinates from ORCA-job B
  C   -2.12050244395107      0.88519556690864      1.78950570960841
  C   -0.77893925706988      0.17196596935686      1.80496464875177
  H   -2.32419321033159      1.47264878220600      2.68607779094336
  H   -2.18769814980008      1.54127157623936      0.91948160915071
  N   -3.17689971068631     -0.15948398783539      1.61069977624882
  H   0.01569484854459      0.91076732734142      1.93915344137972
  H   -0.74355337296838     -0.50682699510452      2.66542039776403
  C   -0.60249284148741     -0.63071222029163      0.49224002501067
  H   0.31389437057389     -1.24034576851250      0.60349784999282
  H   -0.36382858038658      0.11332239654932     -0.30116891787563
  O   -1.71206050211769     -1.37683577951561      0.20253484140071
  H   -4.06473581888516      0.23127189871173      1.28675425639488
  H   -3.34407325935406     -0.67151057389379      2.48492774005599
  H   -2.71686107208025     -0.78188619215988      0.93587983117372
